v 20130925 2
C 0 0 0 0 0 A3-sheet.sym
T 13400 400 5 10 1 1 0 0 1
revision=20220410
T 13400 100 5 10 1 1 0 0 1
author=Bert Timmerman
T 9500 100 5 10 1 1 0 0 1
page=01
T 9500 400 5 10 1 1 0 0 1
file=31.000.00.02.01.sch
T 11000 100 5 10 1 1 0 0 1
pages=01
T 9500 700 5 10 1 1 0 0 1
device=POWER_SUPPLY_UNIT
T 9500 900 5 10 1 1 0 0 1
comment=schematic
T 9500 1100 5 10 1 1 0 0 1
description=Power Supply Unit - Main board - Power Stage (for simulation)
N 3200 5400 3200 5600 4
N 3200 5600 3600 5600 4
{
T 3100 5500 5 6 1 1 0 4 1
netname=1
}
N 3200 4200 3200 4000 4
N 3200 4000 6600 4000 4
{
T 3100 4100 5 6 1 1 0 4 1
netname=0
}
C 3100 3700 1 0 0 gnd-1.sym
L 15100 6600 15300 6800 3 0 0 0 -1 -1
B 15300 6800 600 300 3 0 0 0 -1 -1 0 -1 -1 -1 -1 -1
C 2900 4200 1 0 0 vac-1.sym
{
T 3600 4850 5 10 1 1 0 0 1
refdes=Vin
T 3600 5050 5 10 0 0 0 0 1
device=vac
T 3600 5250 5 10 0 0 0 0 1
footprint=none
T 3600 4600 5 10 1 1 0 0 1
value=AC 240 SIN(0 325 50)
}
L 3100 4200 3200 4100 3 0 0 0 -1 -1
L 3200 4100 3100 4000 3 0 0 0 -1 -1
L 3100 4000 3000 4100 3 0 0 0 -1 -1
L 3000 4100 3100 4200 3 0 0 0 -1 -1
L 3200 5500 3100 5600 3 0 0 0 -1 -1
L 3100 5600 3000 5500 3 0 0 0 -1 -1
L 3000 5500 3100 5400 3 0 0 0 -1 -1
L 3100 5400 3200 5500 3 0 0 0 -1 -1
T 15400 6900 9 10 1 0 0 0 1
Vout
T 200 11400 9 10 1 0 0 2 24
.TITLE POWER SUPPLY UNIT - POWER STAGE - Transient response

.INCLUDE transformer.subckt
.INCLUDE bridge.subckt

Vin 1 0 AC 240 SIN(0 325 50)

X1 0 1 2 3 transformer
X2 2 3 4 5 bridge
C1 4 5 30000u
C2 6 5 100u
R1 4 6 1
R2 6 5 300
R3 0 5 0.1

.PRINT OP Iter(0) V(1)

.PRINT TRAN V(1) V(2) V(3) V(4) V(5) V(6)

*     FROM  TO   STEP
.TRAN 0 0.025 TRACE ALL

.END

C 7000 4200 1 0 0 transformer-1.sym
{
T 7300 5500 5 10 0 0 0 0 1
device=transformer
}
N 6600 5600 6600 5300 4
N 7000 5300 6600 5300 4
N 6600 4000 6600 4300 4
N 7000 4300 6600 4300 4
N 8500 5300 9900 5300 4
{
T 9100 5400 5 6 1 1 0 4 1
netname=3
}
N 8500 4300 10700 4300 4
{
T 9100 4400 5 6 1 1 0 4 1
netname=4
}
L 9100 5500 9000 5400 3 0 0 0 -1 -1
L 9000 5400 9100 5300 3 0 0 0 -1 -1
L 9100 5500 9200 5400 3 0 0 0 -1 -1
L 9200 5400 9100 5300 3 0 0 0 -1 -1
L 9000 4400 9100 4500 3 0 0 0 -1 -1
L 9100 4500 9200 4400 3 0 0 0 -1 -1
L 9200 4400 9100 4300 3 0 0 0 -1 -1
L 9100 4300 9000 4400 3 0 0 0 -1 -1
C 12600 4400 1 90 0 capacitor-1.sym
{
T 11900 4600 5 10 0 0 90 0 1
device=CAPACITOR
T 12100 4700 5 10 1 1 90 0 1
refdes=C1
T 11700 4600 5 10 0 0 90 0 1
symversion=0.1
T 12800 4700 5 10 1 1 90 0 1
value=3000 uF
}
N 12400 5300 12400 6600 4
N 12400 4400 12400 3000 4
C 12800 6500 1 0 0 resistor-2.sym
{
T 13000 6800 5 10 1 1 0 0 1
refdes=R3
T 13000 6300 5 10 1 1 0 0 1
value=1
T 12800 6500 5 10 0 1 0 0 1
footprint=RES1270-635X229____0.6W
T 12800 6500 5 10 0 1 0 0 1
device=RESISTOR
T 12800 6500 5 10 0 1 0 0 1
vendor=Conrad
T 12800 6500 5 10 0 1 0 0 1
vendor_PN=417777
T 12800 6500 5 10 0 1 0 0 1
price=0.15
T 12800 6500 5 10 0 1 0 0 1
mfr=Vishay
T 12800 6500 5 10 0 1 0 0 1
mfr_PN=MBB0207
T 12800 6500 5 10 0 1 0 0 1
documentation=doc/417777.pdf
}
C 14300 4400 1 90 0 capacitor-1.sym
{
T 13600 4600 5 10 0 0 90 0 1
device=CAPACITOR
T 13800 4700 5 10 1 1 90 0 1
refdes=C2
T 13400 4600 5 10 0 0 90 0 1
symversion=0.1
T 14500 4700 5 10 1 1 90 0 1
value=100 uF
}
N 14100 5300 14100 6600 4
N 14100 3000 14100 4400 4
C 15200 4400 1 90 0 resistor-2.sym
{
T 14900 4600 5 10 1 1 90 0 1
refdes=R4
T 15400 4600 5 10 1 1 90 0 1
value=30
T 15200 4400 5 10 0 1 90 0 1
footprint=RES1270-635X229____0.6W
T 15200 4400 5 10 0 1 90 0 1
device=RESISTOR
T 15200 4400 5 10 0 1 90 0 1
vendor=Conrad
T 15200 4400 5 10 0 1 90 0 1
vendor_PN=417777
T 15200 4400 5 10 0 1 90 0 1
price=0.15
T 15200 4400 5 10 0 1 90 0 1
mfr=Vishay
T 15200 4400 5 10 0 1 90 0 1
mfr_PN=MBB0207
T 15200 4400 5 10 0 1 90 0 1
documentation=doc/417777.pdf
}
N 15100 5300 15100 6600 4
N 15100 3000 15100 4400 4
N 9900 6600 12800 6600 4
{
T 10100 6700 5 6 1 1 0 4 1
netname=5
}
L 10000 6700 10100 6800 3 0 0 0 -1 -1
L 10100 6800 10200 6700 3 0 0 0 -1 -1
L 10200 6700 10100 6600 3 0 0 0 -1 -1
L 10100 6600 10000 6700 3 0 0 0 -1 -1
N 9100 3000 15100 3000 4
{
T 9300 3100 5 6 1 1 0 4 1
netname=6
}
L 9300 3200 9400 3100 3 0 0 0 -1 -1
L 9400 3100 9300 3000 3 0 0 0 -1 -1
L 9300 3000 9200 3100 3 0 0 0 -1 -1
L 9200 3100 9300 3200 3 0 0 0 -1 -1
N 13700 6600 15100 6600 4
{
T 13900 6700 5 6 1 1 0 4 1
netname=7
}
L 13800 6700 13900 6800 3 0 0 0 -1 -1
L 13900 6800 14000 6700 3 0 0 0 -1 -1
L 14000 6700 13900 6600 3 0 0 0 -1 -1
L 13900 6600 13800 6700 3 0 0 0 -1 -1
T 6600 4900 9 10 1 0 0 0 1
L1=400 uH
T 8100 4900 9 10 1 0 0 0 1
L2=2.25 uH
T 7400 3900 9 10 1 0 0 0 1
K1=1
C 8200 2900 1 0 0 resistor-2.sym
{
T 8400 3200 5 10 1 1 0 0 1
refdes=R2
T 8400 2700 5 10 1 1 0 0 1
value=0.01
T 8200 2900 5 10 0 1 0 0 1
footprint=RES1270-635X229____0.6W
T 8200 2900 5 10 0 1 0 0 1
device=RESISTOR
T 8200 2900 5 10 0 1 0 0 1
vendor=Conrad
T 8200 2900 5 10 0 1 0 0 1
vendor_PN=417777
T 8200 2900 5 10 0 1 0 0 1
price=0.15
T 8200 2900 5 10 0 1 0 0 1
mfr=Vishay
T 8200 2900 5 10 0 1 0 0 1
mfr_PN=MBB0207
T 8200 2900 5 10 0 1 0 0 1
documentation=doc/417777.pdf
}
N 6400 3000 8200 3000 4
N 6400 3000 6400 4000 4
C 3600 5500 1 0 0 resistor-2.sym
{
T 3800 5800 5 10 1 1 0 0 1
refdes=R1
T 3800 5300 5 10 1 1 0 0 1
value=0.01
T 3600 5500 5 10 0 1 0 0 1
footprint=RES1270-635X229____0.6W
T 3600 5500 5 10 0 1 0 0 1
device=RESISTOR
T 3600 5500 5 10 0 1 0 0 1
vendor=Conrad
T 3600 5500 5 10 0 1 0 0 1
vendor_PN=417777
T 3600 5500 5 10 0 1 0 0 1
price=0.15
T 3600 5500 5 10 0 1 0 0 1
mfr=Vishay
T 3600 5500 5 10 0 1 0 0 1
mfr_PN=MBB0207
T 3600 5500 5 10 0 1 0 0 1
documentation=doc/417777.pdf
}
N 6600 5600 4500 5600 4
{
T 6000 5700 5 6 1 1 0 4 1
netname=2
}
L 6100 5700 6000 5800 3 0 0 0 -1 -1
L 6000 5800 5900 5700 3 0 0 0 -1 -1
L 5900 5700 6000 5600 3 0 0 0 -1 -1
L 6000 5600 6100 5700 3 0 0 0 -1 -1
C 9700 6400 1 270 0 diode-3.sym
{
T 10250 5950 5 10 0 0 270 0 1
device=DIODE
T 9650 5850 5 10 1 1 90 0 1
refdes=D1
}
C 10500 6400 1 270 0 diode-3.sym
{
T 11050 5950 5 10 0 0 270 0 1
device=DIODE
T 10450 5850 5 10 1 1 90 0 1
refdes=D3
}
C 9700 4100 1 270 0 diode-3.sym
{
T 10250 3650 5 10 0 0 270 0 1
device=DIODE
T 9650 3550 5 10 1 1 90 0 1
refdes=D2
}
C 10500 4100 1 270 0 diode-3.sym
{
T 11050 3650 5 10 0 0 270 0 1
device=DIODE
T 10450 3550 5 10 1 1 90 0 1
refdes=D4
}
N 9900 6400 9900 6600 4
N 10700 6400 10700 6600 4
N 9900 5500 9900 4100 4
N 10700 5500 10700 4100 4
N 9900 3200 9900 3000 4
N 10700 3200 10700 3000 4
B 2700 3400 2900 2800 3 0 0 4 100 100 0 -1 -1 -1 -1 -1
G 7500 960 1300 454 0 0 0
/home/bert/workspace/git/projects/31_Power_Supply_Unit/cc-by-sa.png
